<?xml version="1.0" encoding="UTF-8"?>

<!-- generated on 2021-10-03 14:23:09 by Eclipse SUMO jtrrouter Version 1.10.0
<configuration xmlns:xsi="http://www.w3.org/2001/XMLSchema-instance" xsi:noNamespaceSchemaLocation="http://sumo.dlr.de/xsd/jtrrouterConfiguration.xsd">

    <input>
        <net-file value="exp.net.xml"/>
        <route-files value="exp.raw.rou.xml"/>
        <turn-ratio-files value="exp.turns.xml"/>
    </input>

    <output>
        <output-file value="exp.rou.xml"/>
    </output>

    <processing>
        <no-internal-links value="true"/>
    </processing>

</configuration>
-->

<routes xmlns:xsi="http://www.w3.org/2001/XMLSchema-instance" xsi:noNamespaceSchemaLocation="http://sumo.dlr.de/xsd/routes_file.xsd">
    <vType id="type1" length="5.00" accel="5" decel="10"/>
    <vehicle id="f_0_0.0" type="type1" depart="0.00">
        <route edges="np1_nt1 nt1_npc npc_nt5 nt5_np11"/>
    </vehicle>
    <vehicle id="f_1_0.0" type="type1" depart="0.00">
        <route edges="np2_nt1 nt1_npc npc_nt5 nt5_np11"/>
    </vehicle>
    <vehicle id="f_2_0.0" type="type1" depart="0.00">
        <route edges="np3_nt1 nt1_npc npc_nt3 nt3_nt2 nt2_np5"/>
    </vehicle>
    <vehicle id="f_3_0.0" type="type1" depart="0.00">
        <route edges="np8_nt4 nt4_nt5 nt5_np11"/>
    </vehicle>
    <vehicle id="f_4_0.0" type="type1" depart="0.00">
        <route edges="np9_nt4 nt4_nt5 nt5_np11"/>
    </vehicle>
    <vehicle id="mf_4_0.0" type="type1" depart="1.00" departPos="random_free">
        <route edges="nt1_nt2 nt2_np4"/>
    </vehicle>
    <vehicle id="mf_5_0.0" type="type1" depart="1.00" departPos="random_free">
        <route edges="nt1_nt6 nt6_np13"/>
    </vehicle>
    <vehicle id="mf_3_0.0" type="type1" depart="2.00" departPos="random_free">
        <route edges="nt4_nt5 nt5_nt6 nt6_np12"/>
    </vehicle>
    <vehicle id="mf_5_0.1" type="type1" depart="2.00" departPos="random_free">
        <route edges="nt1_nt6 nt6_np13"/>
    </vehicle>
    <vehicle id="mf_4_0.1" type="type1" depart="3.00" departPos="random_free">
        <route edges="nt1_nt2 nt2_np4"/>
    </vehicle>
    <vehicle id="mf_3_0.1" type="type1" depart="5.00" departPos="random_free">
        <route edges="nt4_nt5 nt5_nt6 nt6_np12"/>
    </vehicle>
    <vehicle id="mf_5_0.2" type="type1" depart="5.00" departPos="random_free">
        <route edges="nt1_nt6 nt6_np13"/>
    </vehicle>
    <vehicle id="f_1_0.1" type="type1" depart="6.00">
        <route edges="np2_nt1 nt1_npc npc_nt5 nt5_np11"/>
    </vehicle>
    <vehicle id="f_4_0.1" type="type1" depart="6.00">
        <route edges="np9_nt4 nt4_nt3 nt3_np6"/>
    </vehicle>
    <vehicle id="mf_3_0.2" type="type1" depart="7.00" departPos="random_free">
        <route edges="nt4_nt5 nt5_nt6 nt6_np12"/>
    </vehicle>
    <vehicle id="mf_4_0.2" type="type1" depart="7.00" departPos="random_free">
        <route edges="nt1_nt2 nt2_np4"/>
    </vehicle>
    <vehicle id="f_0_0.1" type="type1" depart="7.20">
        <route edges="np1_nt1 nt1_nt6 nt6_np13"/>
    </vehicle>
    <vehicle id="mf_5_0.3" type="type1" depart="8.00" departPos="random_free">
        <route edges="nt1_nt6 nt6_np13"/>
    </vehicle>
    <vehicle id="mf_4_0.3" type="type1" depart="9.00" departPos="random_free">
        <route edges="nt1_nt2 nt2_np4"/>
    </vehicle>
    <vehicle id="mf_5_0.4" type="type1" depart="9.00" departPos="random_free">
        <route edges="nt1_nt6 nt6_np13"/>
    </vehicle>
    <vehicle id="mf_3_0.3" type="type1" depart="10.00" departPos="random_free">
        <route edges="nt4_nt5 nt5_nt6 nt6_np12"/>
    </vehicle>
    <vehicle id="mf_4_0.4" type="type1" depart="11.00" departPos="random_free">
        <route edges="nt1_nt2 nt2_np4"/>
    </vehicle>
    <vehicle id="f_1_0.2" type="type1" depart="12.00">
        <route edges="np2_nt1 nt1_npc npc_nt3 nt3_nt2 nt2_np5"/>
    </vehicle>
    <vehicle id="f_4_0.2" type="type1" depart="12.00">
        <route edges="np9_nt4 nt4_nt3 nt3_np6"/>
    </vehicle>
    <vehicle id="f_0_0.2" type="type1" depart="14.40">
        <route edges="np1_nt1 nt1_nt2 nt2_np4"/>
    </vehicle>
    <vehicle id="mf_3_0.4" type="type1" depart="15.00" departPos="random_free">
        <route edges="nt4_nt5 nt5_nt6 nt6_np12"/>
    </vehicle>
    <vehicle id="mf_3_0.5" type="type1" depart="16.00" departPos="random_free">
        <route edges="nt4_nt5 nt5_nt6 nt6_np12"/>
    </vehicle>
    <vehicle id="mf_4_0.5" type="type1" depart="16.00" departPos="random_free">
        <route edges="nt1_nt2 nt2_np4"/>
    </vehicle>
    <vehicle id="f_1_0.3" type="type1" depart="18.00">
        <route edges="np2_nt1 nt1_nt2 nt2_np4"/>
    </vehicle>
    <vehicle id="f_4_0.3" type="type1" depart="18.00">
        <route edges="np9_nt4 nt4_nt5 nt5_nt6 nt6_np12"/>
    </vehicle>
    <vehicle id="mf_4_0.6" type="type1" depart="19.00" departPos="random_free">
        <route edges="nt1_nt2 nt2_np4"/>
    </vehicle>
    <vehicle id="mf_3_0.6" type="type1" depart="20.00" departPos="random_free">
        <route edges="nt4_nt5 nt5_nt6 nt6_np12"/>
    </vehicle>
    <vehicle id="mf_4_0.7" type="type1" depart="21.00" departPos="random_free">
        <route edges="nt1_nt2 nt2_np4"/>
    </vehicle>
    <vehicle id="f_0_0.3" type="type1" depart="21.60">
        <route edges="np1_nt1 nt1_npc npc_nt5 nt5_np11"/>
    </vehicle>
    <vehicle id="mf_4_0.8" type="type1" depart="23.00" departPos="random_free">
        <route edges="nt1_nt2 nt2_np4"/>
    </vehicle>
    <vehicle id="mf_5_0.5" type="type1" depart="23.00" departPos="random_free">
        <route edges="nt1_nt6 nt6_np13"/>
    </vehicle>
    <vehicle id="f_1_0.4" type="type1" depart="24.00">
        <route edges="np2_nt1 nt1_npc npc_nt5 nt5_np11"/>
    </vehicle>
    <vehicle id="f_4_0.4" type="type1" depart="24.00">
        <route edges="np9_nt4 nt4_nt3 nt3_nt2 nt2_np5"/>
    </vehicle>
    <vehicle id="mf_5_0.6" type="type1" depart="24.00" departPos="random_free">
        <route edges="nt1_nt6 nt6_np13"/>
    </vehicle>
    <vehicle id="mf_4_0.9" type="type1" depart="27.00" departPos="random_free">
        <route edges="nt1_nt2 nt2_np4"/>
    </vehicle>
    <vehicle id="f_0_0.4" type="type1" depart="28.80">
        <route edges="np1_nt1 nt1_nt6 nt6_np13"/>
    </vehicle>
    <vehicle id="mf_3_0.7" type="type1" depart="29.00" departPos="random_free">
        <route edges="nt4_nt5 nt5_nt6 nt6_np12"/>
    </vehicle>
    <vehicle id="mf_4_0.10" type="type1" depart="29.00" departPos="random_free">
        <route edges="nt1_nt2 nt2_np4"/>
    </vehicle>
    <vehicle id="mf_5_0.7" type="type1" depart="29.00" departPos="random_free">
        <route edges="nt1_nt6 nt6_np13"/>
    </vehicle>
    <vehicle id="f_1_0.5" type="type1" depart="30.00">
        <route edges="np2_nt1 nt1_npc npc_nt5 nt5_np11"/>
    </vehicle>
    <vehicle id="f_4_0.5" type="type1" depart="30.00">
        <route edges="np9_nt4 nt4_nt3 nt3_np6"/>
    </vehicle>
    <vehicle id="mf_3_0.8" type="type1" depart="30.00" departPos="random_free">
        <route edges="nt4_nt5 nt5_nt6 nt6_np12"/>
    </vehicle>
    <vehicle id="mf_4_0.11" type="type1" depart="30.00" departPos="random_free">
        <route edges="nt1_nt2 nt2_np4"/>
    </vehicle>
    <vehicle id="mf_5_0.8" type="type1" depart="30.00" departPos="random_free">
        <route edges="nt1_nt6 nt6_np13"/>
    </vehicle>
    <vehicle id="mf_4_0.12" type="type1" depart="32.00" departPos="random_free">
        <route edges="nt1_nt2 nt2_np4"/>
    </vehicle>
    <vehicle id="mf_3_0.9" type="type1" depart="33.00" departPos="random_free">
        <route edges="nt4_nt5 nt5_nt6 nt6_np12"/>
    </vehicle>
    <vehicle id="mf_3_0.10" type="type1" depart="35.00" departPos="random_free">
        <route edges="nt4_nt5 nt5_nt6 nt6_np12"/>
    </vehicle>
    <vehicle id="mf_5_0.9" type="type1" depart="35.00" departPos="random_free">
        <route edges="nt1_nt6 nt6_np13"/>
    </vehicle>
    <vehicle id="f_0_0.5" type="type1" depart="36.00">
        <route edges="np1_nt1 nt1_nt6 nt6_np13"/>
    </vehicle>
    <vehicle id="f_1_0.6" type="type1" depart="36.00">
        <route edges="np2_nt1 nt1_npc npc_nt3 nt3_np6"/>
    </vehicle>
    <vehicle id="f_2_0.1" type="type1" depart="36.00">
        <route edges="np3_nt1 nt1_npc npc_nt5 nt5_np11"/>
    </vehicle>
    <vehicle id="f_3_0.1" type="type1" depart="36.00">
        <route edges="np8_nt4 nt4_nt5 nt5_nt6 nt6_np12"/>
    </vehicle>
    <vehicle id="f_4_0.6" type="type1" depart="36.00">
        <route edges="np9_nt4 nt4_nt5 nt5_nt6 nt6_np12"/>
    </vehicle>
    <vehicle id="mf_3_0.11" type="type1" depart="38.00" departPos="random_free">
        <route edges="nt4_nt5 nt5_nt6 nt6_np12"/>
    </vehicle>
    <vehicle id="mf_3_0.12" type="type1" depart="39.00" departPos="random_free">
        <route edges="nt4_nt5 nt5_nt6 nt6_np12"/>
    </vehicle>
    <vehicle id="mf_4_0.13" type="type1" depart="40.00" departPos="random_free">
        <route edges="nt1_nt2 nt2_np4"/>
    </vehicle>
    <vehicle id="mf_4_0.14" type="type1" depart="41.00" departPos="random_free">
        <route edges="nt1_nt2 nt2_np4"/>
    </vehicle>
    <vehicle id="f_1_0.7" type="type1" depart="42.00">
        <route edges="np2_nt1 nt1_npc npc_nt5 nt5_np11"/>
    </vehicle>
    <vehicle id="f_4_0.7" type="type1" depart="42.00">
        <route edges="np9_nt4 nt4_nt3 nt3_np6"/>
    </vehicle>
    <vehicle id="mf_3_0.13" type="type1" depart="42.00" departPos="random_free">
        <route edges="nt4_nt5 nt5_nt6 nt6_np12"/>
    </vehicle>
    <vehicle id="mf_3_0.14" type="type1" depart="43.00" departPos="random_free">
        <route edges="nt4_nt5 nt5_nt6 nt6_np12"/>
    </vehicle>
    <vehicle id="mf_4_0.15" type="type1" depart="43.00" departPos="random_free">
        <route edges="nt1_nt2 nt2_np4"/>
    </vehicle>
    <vehicle id="f_0_0.6" type="type1" depart="43.20">
        <route edges="np1_nt1 nt1_nt2 nt2_np4"/>
    </vehicle>
    <vehicle id="mf_3_0.15" type="type1" depart="44.00" departPos="random_free">
        <route edges="nt4_nt5 nt5_nt6 nt6_np12"/>
    </vehicle>
    <vehicle id="mf_4_0.16" type="type1" depart="44.00" departPos="random_free">
        <route edges="nt1_nt2 nt2_np4"/>
    </vehicle>
    <vehicle id="mf_4_0.17" type="type1" depart="45.00" departPos="random_free">
        <route edges="nt1_nt2 nt2_np4"/>
    </vehicle>
    <vehicle id="mf_5_0.10" type="type1" depart="45.00" departPos="random_free">
        <route edges="nt1_nt6 nt6_np13"/>
    </vehicle>
    <vehicle id="mf_3_0.16" type="type1" depart="46.00" departPos="random_free">
        <route edges="nt4_nt5 nt5_nt6 nt6_np12"/>
    </vehicle>
    <vehicle id="mf_5_0.11" type="type1" depart="46.00" departPos="random_free">
        <route edges="nt1_nt6 nt6_np13"/>
    </vehicle>
    <vehicle id="mf_4_0.18" type="type1" depart="47.00" departPos="random_free">
        <route edges="nt1_nt2 nt2_np4"/>
    </vehicle>
    <vehicle id="f_1_0.8" type="type1" depart="48.00">
        <route edges="np2_nt1 nt1_npc npc_nt3 nt3_np6"/>
    </vehicle>
    <vehicle id="f_4_0.8" type="type1" depart="48.00">
        <route edges="np9_nt4 nt4_nt3 nt3_np6"/>
    </vehicle>
    <vehicle id="mf_3_0.17" type="type1" depart="48.00" departPos="random_free">
        <route edges="nt4_nt5 nt5_nt6 nt6_np12"/>
    </vehicle>
    <vehicle id="mf_4_0.19" type="type1" depart="50.00" departPos="random_free">
        <route edges="nt1_nt2 nt2_np4"/>
    </vehicle>
    <vehicle id="f_0_0.7" type="type1" depart="50.40">
        <route edges="np1_nt1 nt1_nt2 nt2_np4"/>
    </vehicle>
    <vehicle id="mf_5_0.12" type="type1" depart="52.00" departPos="random_free">
        <route edges="nt1_nt6 nt6_np13"/>
    </vehicle>
    <vehicle id="mf_5_0.13" type="type1" depart="53.00" departPos="random_free">
        <route edges="nt1_nt6 nt6_np13"/>
    </vehicle>
    <vehicle id="f_1_0.9" type="type1" depart="54.00">
        <route edges="np2_nt1 nt1_npc npc_nt5 nt5_np11"/>
    </vehicle>
    <vehicle id="f_4_0.9" type="type1" depart="54.00">
        <route edges="np9_nt4 nt4_nt3 nt3_nt2 nt2_np5"/>
    </vehicle>
    <vehicle id="f_0_0.8" type="type1" depart="57.60">
        <route edges="np1_nt1 nt1_npc npc_nt5 nt5_nt6 nt6_np12"/>
    </vehicle>
    <vehicle id="mf_3_0.18" type="type1" depart="58.00" departPos="random_free">
        <route edges="nt4_nt5 nt5_nt6 nt6_np12"/>
    </vehicle>
    <vehicle id="mf_5_0.14" type="type1" depart="58.00" departPos="random_free">
        <route edges="nt1_nt6 nt6_np13"/>
    </vehicle>
    <vehicle id="f_1_0.10" type="type1" depart="60.00">
        <route edges="np2_nt1 nt1_npc npc_nt5 nt5_np11"/>
    </vehicle>
    <vehicle id="f_4_0.10" type="type1" depart="60.00">
        <route edges="np9_nt4 nt4_nt3 nt3_nt2 nt2_np5"/>
    </vehicle>
    <vehicle id="mf_3_0.19" type="type1" depart="60.00" departPos="random_free">
        <route edges="nt4_nt5 nt5_nt6 nt6_np12"/>
    </vehicle>
    <vehicle id="mf_3_0.20" type="type1" depart="62.00" departPos="random_free">
        <route edges="nt4_nt5 nt5_nt6 nt6_np12"/>
    </vehicle>
    <vehicle id="mf_5_0.15" type="type1" depart="62.00" departPos="random_free">
        <route edges="nt1_nt6 nt6_np13"/>
    </vehicle>
    <vehicle id="mf_3_0.21" type="type1" depart="63.00" departPos="random_free">
        <route edges="nt4_nt5 nt5_nt6 nt6_np12"/>
    </vehicle>
    <vehicle id="mf_4_0.20" type="type1" depart="63.00" departPos="random_free">
        <route edges="nt1_nt2 nt2_np4"/>
    </vehicle>
    <vehicle id="mf_3_0.22" type="type1" depart="64.00" departPos="random_free">
        <route edges="nt4_nt5 nt5_nt6 nt6_np12"/>
    </vehicle>
    <vehicle id="mf_4_0.21" type="type1" depart="64.00" departPos="random_free">
        <route edges="nt1_nt2 nt2_np4"/>
    </vehicle>
    <vehicle id="f_0_0.9" type="type1" depart="64.80">
        <route edges="np1_nt1 nt1_nt2 nt2_np4"/>
    </vehicle>
    <vehicle id="mf_5_0.16" type="type1" depart="65.00" departPos="random_free">
        <route edges="nt1_nt6 nt6_np13"/>
    </vehicle>
    <vehicle id="f_1_0.11" type="type1" depart="66.00">
        <route edges="np2_nt1 nt1_nt2 nt2_np4"/>
    </vehicle>
    <vehicle id="f_4_0.11" type="type1" depart="66.00">
        <route edges="np9_nt4 nt4_nt3 nt3_nt2 nt2_np5"/>
    </vehicle>
    <vehicle id="mf_5_0.17" type="type1" depart="66.00" departPos="random_free">
        <route edges="nt1_nt6 nt6_np13"/>
    </vehicle>
    <vehicle id="mf_3_0.23" type="type1" depart="67.00" departPos="random_free">
        <route edges="nt4_nt5 nt5_nt6 nt6_np12"/>
    </vehicle>
    <vehicle id="mf_4_0.22" type="type1" depart="67.00" departPos="random_free">
        <route edges="nt1_nt2 nt2_np4"/>
    </vehicle>
    <vehicle id="mf_3_0.24" type="type1" depart="68.00" departPos="random_free">
        <route edges="nt4_nt5 nt5_nt6 nt6_np12"/>
    </vehicle>
    <vehicle id="mf_4_0.23" type="type1" depart="71.00" departPos="random_free">
        <route edges="nt1_nt2 nt2_np4"/>
    </vehicle>
    <vehicle id="f_0_0.10" type="type1" depart="72.00">
        <route edges="np1_nt1 nt1_npc npc_nt3 nt3_nt2 nt2_np5"/>
    </vehicle>
    <vehicle id="f_1_0.12" type="type1" depart="72.00">
        <route edges="np2_nt1 nt1_npc npc_nt5 nt5_np11"/>
    </vehicle>
    <vehicle id="f_2_0.2" type="type1" depart="72.00">
        <route edges="np3_nt1 nt1_npc npc_nt5 nt5_np11"/>
    </vehicle>
    <vehicle id="f_3_0.2" type="type1" depart="72.00">
        <route edges="np8_nt4 nt4_nt5 nt5_np11"/>
    </vehicle>
    <vehicle id="f_4_0.12" type="type1" depart="72.00">
        <route edges="np9_nt4 nt4_nt3 nt3_nt2 nt2_np5"/>
    </vehicle>
    <vehicle id="mf_3_0.25" type="type1" depart="72.00" departPos="random_free">
        <route edges="nt4_nt5 nt5_nt6 nt6_np12"/>
    </vehicle>
    <vehicle id="mf_5_0.18" type="type1" depart="73.00" departPos="random_free">
        <route edges="nt1_nt6 nt6_np13"/>
    </vehicle>
    <vehicle id="mf_3_0.26" type="type1" depart="74.00" departPos="random_free">
        <route edges="nt4_nt5 nt5_nt6 nt6_np12"/>
    </vehicle>
    <vehicle id="mf_4_0.24" type="type1" depart="74.00" departPos="random_free">
        <route edges="nt1_nt2 nt2_np4"/>
    </vehicle>
    <vehicle id="mf_3_0.27" type="type1" depart="75.00" departPos="random_free">
        <route edges="nt4_nt5 nt5_nt6 nt6_np12"/>
    </vehicle>
    <vehicle id="mf_3_0.28" type="type1" depart="76.00" departPos="random_free">
        <route edges="nt4_nt5 nt5_nt6 nt6_np12"/>
    </vehicle>
    <vehicle id="mf_3_0.29" type="type1" depart="77.00" departPos="random_free">
        <route edges="nt4_nt5 nt5_nt6 nt6_np12"/>
    </vehicle>
    <vehicle id="f_1_0.13" type="type1" depart="78.00">
        <route edges="np2_nt1 nt1_npc npc_nt3 nt3_nt2 nt2_np5"/>
    </vehicle>
    <vehicle id="f_4_0.13" type="type1" depart="78.00">
        <route edges="np9_nt4 nt4_nt3 nt3_np6"/>
    </vehicle>
    <vehicle id="f_0_0.11" type="type1" depart="79.20">
        <route edges="np1_nt1 nt1_npc npc_nt5 nt5_nt6 nt6_np12"/>
    </vehicle>
    <vehicle id="mf_4_0.25" type="type1" depart="80.00" departPos="random_free">
        <route edges="nt1_nt2 nt2_np4"/>
    </vehicle>
    <vehicle id="mf_3_0.30" type="type1" depart="81.00" departPos="random_free">
        <route edges="nt4_nt5 nt5_nt6 nt6_np12"/>
    </vehicle>
    <vehicle id="mf_5_0.19" type="type1" depart="81.00" departPos="random_free">
        <route edges="nt1_nt6 nt6_np13"/>
    </vehicle>
    <vehicle id="mf_5_0.20" type="type1" depart="83.00" departPos="random_free">
        <route edges="nt1_nt6 nt6_np13"/>
    </vehicle>
    <vehicle id="f_1_0.14" type="type1" depart="84.00">
        <route edges="np2_nt1 nt1_npc npc_nt5 nt5_nt6 nt6_np12"/>
    </vehicle>
    <vehicle id="f_4_0.14" type="type1" depart="84.00">
        <route edges="np9_nt4 nt4_nt3 nt3_nt2 nt2_np5"/>
    </vehicle>
    <vehicle id="mf_4_0.26" type="type1" depart="84.00" departPos="random_free">
        <route edges="nt1_nt2 nt2_np4"/>
    </vehicle>
    <vehicle id="mf_5_0.21" type="type1" depart="85.00" departPos="random_free">
        <route edges="nt1_nt6 nt6_np13"/>
    </vehicle>
    <vehicle id="f_0_0.12" type="type1" depart="86.40">
        <route edges="np1_nt1 nt1_nt2 nt2_np4"/>
    </vehicle>
    <vehicle id="mf_4_0.27" type="type1" depart="89.00" departPos="random_free">
        <route edges="nt1_nt2 nt2_np4"/>
    </vehicle>
    <vehicle id="mf_5_0.22" type="type1" depart="89.00" departPos="random_free">
        <route edges="nt1_nt6 nt6_np13"/>
    </vehicle>
    <vehicle id="f_1_0.15" type="type1" depart="90.00">
        <route edges="np2_nt1 nt1_npc npc_nt5 nt5_np11"/>
    </vehicle>
    <vehicle id="f_4_0.15" type="type1" depart="90.00">
        <route edges="np9_nt4 nt4_nt5 nt5_nt6 nt6_np12"/>
    </vehicle>
    <vehicle id="mf_3_0.31" type="type1" depart="92.00" departPos="random_free">
        <route edges="nt4_nt5 nt5_nt6 nt6_np12"/>
    </vehicle>
    <vehicle id="f_0_0.13" type="type1" depart="93.60">
        <route edges="np1_nt1 nt1_nt2 nt2_np4"/>
    </vehicle>
    <vehicle id="mf_3_0.32" type="type1" depart="94.00" departPos="random_free">
        <route edges="nt4_nt5 nt5_nt6 nt6_np12"/>
    </vehicle>
    <vehicle id="mf_5_0.23" type="type1" depart="94.00" departPos="random_free">
        <route edges="nt1_nt6 nt6_np13"/>
    </vehicle>
    <vehicle id="mf_5_0.24" type="type1" depart="95.00" departPos="random_free">
        <route edges="nt1_nt6 nt6_np13"/>
    </vehicle>
    <vehicle id="f_1_0.16" type="type1" depart="96.00">
        <route edges="np2_nt1 nt1_npc npc_nt3 nt3_np6"/>
    </vehicle>
    <vehicle id="f_4_0.16" type="type1" depart="96.00">
        <route edges="np9_nt4 nt4_nt3 nt3_nt2 nt2_np5"/>
    </vehicle>
    <vehicle id="mf_5_0.25" type="type1" depart="96.00" departPos="random_free">
        <route edges="nt1_nt6 nt6_np13"/>
    </vehicle>
    <vehicle id="mf_5_0.26" type="type1" depart="97.00" departPos="random_free">
        <route edges="nt1_nt6 nt6_np13"/>
    </vehicle>
    <vehicle id="f_0_0.14" type="type1" depart="100.80">
        <route edges="np1_nt1 nt1_nt6 nt6_np13"/>
    </vehicle>
    <vehicle id="f_1_0.17" type="type1" depart="102.00">
        <route edges="np2_nt1 nt1_npc npc_nt3 nt3_nt2 nt2_np5"/>
    </vehicle>
    <vehicle id="f_4_0.17" type="type1" depart="102.00">
        <route edges="np9_nt4 nt4_nt5 nt5_np11"/>
    </vehicle>
    <vehicle id="mf_4_0.28" type="type1" depart="103.00" departPos="random_free">
        <route edges="nt1_nt2 nt2_np4"/>
    </vehicle>
    <vehicle id="mf_5_0.27" type="type1" depart="104.00" departPos="random_free">
        <route edges="nt1_nt6 nt6_np13"/>
    </vehicle>
    <vehicle id="mf_5_0.28" type="type1" depart="107.00" departPos="random_free">
        <route edges="nt1_nt6 nt6_np13"/>
    </vehicle>
    <vehicle id="f_0_0.15" type="type1" depart="108.00">
        <route edges="np1_nt1 nt1_nt6 nt6_np13"/>
    </vehicle>
    <vehicle id="f_1_0.18" type="type1" depart="108.00">
        <route edges="np2_nt1 nt1_npc npc_nt3 nt3_nt2 nt2_np5"/>
    </vehicle>
    <vehicle id="f_2_0.3" type="type1" depart="108.00">
        <route edges="np3_nt1 nt1_nt2 nt2_np4"/>
    </vehicle>
    <vehicle id="f_3_0.3" type="type1" depart="108.00">
        <route edges="np8_nt4 nt4_nt5 nt5_nt6 nt6_np12"/>
    </vehicle>
    <vehicle id="f_4_0.18" type="type1" depart="108.00">
        <route edges="np9_nt4 nt4_nt5 nt5_np11"/>
    </vehicle>
    <vehicle id="mf_4_0.29" type="type1" depart="108.00" departPos="random_free">
        <route edges="nt1_nt2 nt2_np4"/>
    </vehicle>
    <vehicle id="mf_5_0.29" type="type1" depart="108.00" departPos="random_free">
        <route edges="nt1_nt6 nt6_np13"/>
    </vehicle>
    <vehicle id="mf_3_0.33" type="type1" depart="109.00" departPos="random_free">
        <route edges="nt4_nt5 nt5_nt6 nt6_np12"/>
    </vehicle>
    <vehicle id="mf_5_0.30" type="type1" depart="110.00" departPos="random_free">
        <route edges="nt1_nt6 nt6_np13"/>
    </vehicle>
    <vehicle id="mf_4_0.30" type="type1" depart="111.00" departPos="random_free">
        <route edges="nt1_nt2 nt2_np4"/>
    </vehicle>
    <vehicle id="f_1_0.19" type="type1" depart="114.00">
        <route edges="np2_nt1 nt1_npc npc_nt5 nt5_np11"/>
    </vehicle>
    <vehicle id="f_4_0.19" type="type1" depart="114.00">
        <route edges="np9_nt4 nt4_nt5 nt5_np11"/>
    </vehicle>
    <vehicle id="mf_4_0.31" type="type1" depart="114.00" departPos="random_free">
        <route edges="nt1_nt2 nt2_np4"/>
    </vehicle>
    <vehicle id="mf_3_0.34" type="type1" depart="115.00" departPos="random_free">
        <route edges="nt4_nt5 nt5_nt6 nt6_np12"/>
    </vehicle>
    <vehicle id="mf_4_0.32" type="type1" depart="115.00" departPos="random_free">
        <route edges="nt1_nt2 nt2_np4"/>
    </vehicle>
    <vehicle id="mf_5_0.31" type="type1" depart="115.00" departPos="random_free">
        <route edges="nt1_nt6 nt6_np13"/>
    </vehicle>
    <vehicle id="f_0_0.16" type="type1" depart="115.20">
        <route edges="np1_nt1 nt1_nt6 nt6_np13"/>
    </vehicle>
    <vehicle id="mf_4_0.33" type="type1" depart="116.00" departPos="random_free">
        <route edges="nt1_nt2 nt2_np4"/>
    </vehicle>
    <vehicle id="mf_3_0.35" type="type1" depart="117.00" departPos="random_free">
        <route edges="nt4_nt5 nt5_nt6 nt6_np12"/>
    </vehicle>
    <vehicle id="mf_4_0.34" type="type1" depart="117.00" departPos="random_free">
        <route edges="nt1_nt2 nt2_np4"/>
    </vehicle>
    <vehicle id="mf_4_0.35" type="type1" depart="118.00" departPos="random_free">
        <route edges="nt1_nt2 nt2_np4"/>
    </vehicle>
    <vehicle id="mf_5_0.32" type="type1" depart="118.00" departPos="random_free">
        <route edges="nt1_nt6 nt6_np13"/>
    </vehicle>
    <vehicle id="mf_5_0.33" type="type1" depart="119.00" departPos="random_free">
        <route edges="nt1_nt6 nt6_np13"/>
    </vehicle>
    <vehicle id="f_1_0.20" type="type1" depart="120.00">
        <route edges="np2_nt1 nt1_npc npc_nt5 nt5_np11"/>
    </vehicle>
    <vehicle id="f_4_0.20" type="type1" depart="120.00">
        <route edges="np9_nt4 nt4_nt5 nt5_np11"/>
    </vehicle>
    <vehicle id="mf_3_0.36" type="type1" depart="121.00" departPos="random_free">
        <route edges="nt4_nt5 nt5_nt6 nt6_np12"/>
    </vehicle>
    <vehicle id="mf_5_0.34" type="type1" depart="122.00" departPos="random_free">
        <route edges="nt1_nt6 nt6_np13"/>
    </vehicle>
    <vehicle id="f_0_0.17" type="type1" depart="122.40">
        <route edges="np1_nt1 nt1_npc npc_nt3 nt3_np6"/>
    </vehicle>
    <vehicle id="mf_4_0.36" type="type1" depart="123.00" departPos="random_free">
        <route edges="nt1_nt2 nt2_np4"/>
    </vehicle>
    <vehicle id="mf_5_0.35" type="type1" depart="123.00" departPos="random_free">
        <route edges="nt1_nt6 nt6_np13"/>
    </vehicle>
    <vehicle id="mf_5_0.36" type="type1" depart="125.00" departPos="random_free">
        <route edges="nt1_nt6 nt6_np13"/>
    </vehicle>
    <vehicle id="f_1_0.21" type="type1" depart="126.00">
        <route edges="np2_nt1 nt1_npc npc_nt3 nt3_nt2 nt2_np5"/>
    </vehicle>
    <vehicle id="f_4_0.21" type="type1" depart="126.00">
        <route edges="np9_nt4 nt4_nt3 nt3_nt2 nt2_np5"/>
    </vehicle>
    <vehicle id="mf_3_0.37" type="type1" depart="126.00" departPos="random_free">
        <route edges="nt4_nt5 nt5_nt6 nt6_np12"/>
    </vehicle>
    <vehicle id="mf_4_0.37" type="type1" depart="127.00" departPos="random_free">
        <route edges="nt1_nt2 nt2_np4"/>
    </vehicle>
    <vehicle id="mf_5_0.37" type="type1" depart="127.00" departPos="random_free">
        <route edges="nt1_nt6 nt6_np13"/>
    </vehicle>
    <vehicle id="f_0_0.18" type="type1" depart="129.60">
        <route edges="np1_nt1 nt1_nt6 nt6_np13"/>
    </vehicle>
    <vehicle id="mf_5_0.38" type="type1" depart="130.00" departPos="random_free">
        <route edges="nt1_nt6 nt6_np13"/>
    </vehicle>
    <vehicle id="mf_4_0.38" type="type1" depart="131.00" departPos="random_free">
        <route edges="nt1_nt2 nt2_np4"/>
    </vehicle>
    <vehicle id="f_1_0.22" type="type1" depart="132.00">
        <route edges="np2_nt1 nt1_nt2 nt2_np4"/>
    </vehicle>
    <vehicle id="f_4_0.22" type="type1" depart="132.00">
        <route edges="np9_nt4 nt4_nt5 nt5_nt6 nt6_np12"/>
    </vehicle>
    <vehicle id="mf_3_0.38" type="type1" depart="132.00" departPos="random_free">
        <route edges="nt4_nt5 nt5_nt6 nt6_np12"/>
    </vehicle>
    <vehicle id="mf_4_0.39" type="type1" depart="132.00" departPos="random_free">
        <route edges="nt1_nt2 nt2_np4"/>
    </vehicle>
    <vehicle id="mf_4_0.40" type="type1" depart="134.00" departPos="random_free">
        <route edges="nt1_nt2 nt2_np4"/>
    </vehicle>
    <vehicle id="mf_5_0.39" type="type1" depart="134.00" departPos="random_free">
        <route edges="nt1_nt6 nt6_np13"/>
    </vehicle>
    <vehicle id="mf_4_0.41" type="type1" depart="135.00" departPos="random_free">
        <route edges="nt1_nt2 nt2_np4"/>
    </vehicle>
    <vehicle id="mf_4_0.42" type="type1" depart="136.00" departPos="random_free">
        <route edges="nt1_nt2 nt2_np4"/>
    </vehicle>
    <vehicle id="f_0_0.19" type="type1" depart="136.80">
        <route edges="np1_nt1 nt1_npc npc_nt3 nt3_np6"/>
    </vehicle>
    <vehicle id="mf_3_0.39" type="type1" depart="137.00" departPos="random_free">
        <route edges="nt4_nt5 nt5_nt6 nt6_np12"/>
    </vehicle>
    <vehicle id="mf_4_0.43" type="type1" depart="137.00" departPos="random_free">
        <route edges="nt1_nt2 nt2_np4"/>
    </vehicle>
    <vehicle id="f_1_0.23" type="type1" depart="138.00">
        <route edges="np2_nt1 nt1_npc npc_nt3 nt3_np6"/>
    </vehicle>
    <vehicle id="f_4_0.23" type="type1" depart="138.00">
        <route edges="np9_nt4 nt4_nt5 nt5_np11"/>
    </vehicle>
    <vehicle id="mf_5_0.40" type="type1" depart="139.00" departPos="random_free">
        <route edges="nt1_nt6 nt6_np13"/>
    </vehicle>
    <vehicle id="mf_4_0.44" type="type1" depart="142.00" departPos="random_free">
        <route edges="nt1_nt2 nt2_np4"/>
    </vehicle>
    <vehicle id="mf_3_0.40" type="type1" depart="143.00" departPos="random_free">
        <route edges="nt4_nt5 nt5_nt6 nt6_np12"/>
    </vehicle>
    <vehicle id="mf_5_0.41" type="type1" depart="143.00" departPos="random_free">
        <route edges="nt1_nt6 nt6_np13"/>
    </vehicle>
    <vehicle id="f_0_0.20" type="type1" depart="144.00">
        <route edges="np1_nt1 nt1_npc npc_nt3 nt3_np6"/>
    </vehicle>
    <vehicle id="f_1_0.24" type="type1" depart="144.00">
        <route edges="np2_nt1 nt1_npc npc_nt5 nt5_np11"/>
    </vehicle>
    <vehicle id="f_2_0.4" type="type1" depart="144.00">
        <route edges="np3_nt1 nt1_nt2 nt2_np4"/>
    </vehicle>
    <vehicle id="f_3_0.4" type="type1" depart="144.00">
        <route edges="np8_nt4 nt4_nt3 nt3_np6"/>
    </vehicle>
    <vehicle id="f_4_0.24" type="type1" depart="144.00">
        <route edges="np9_nt4 nt4_nt3 nt3_np6"/>
    </vehicle>
    <vehicle id="mf_4_0.45" type="type1" depart="145.00" departPos="random_free">
        <route edges="nt1_nt2 nt2_np4"/>
    </vehicle>
    <vehicle id="mf_5_0.42" type="type1" depart="147.00" departPos="random_free">
        <route edges="nt1_nt6 nt6_np13"/>
    </vehicle>
    <vehicle id="mf_3_0.41" type="type1" depart="148.00" departPos="random_free">
        <route edges="nt4_nt5 nt5_nt6 nt6_np12"/>
    </vehicle>
    <vehicle id="mf_4_0.46" type="type1" depart="149.00" departPos="random_free">
        <route edges="nt1_nt2 nt2_np4"/>
    </vehicle>
    <vehicle id="f_1_0.25" type="type1" depart="150.00">
        <route edges="np2_nt1 nt1_nt2 nt2_np4"/>
    </vehicle>
    <vehicle id="f_4_0.25" type="type1" depart="150.00">
        <route edges="np9_nt4 nt4_nt3 nt3_nt2 nt2_np5"/>
    </vehicle>
    <vehicle id="mf_4_0.47" type="type1" depart="151.00" departPos="random_free">
        <route edges="nt1_nt2 nt2_np4"/>
    </vehicle>
    <vehicle id="f_0_0.21" type="type1" depart="151.20">
        <route edges="np1_nt1 nt1_nt6 nt6_np13"/>